<nodes>
    <!-- Grid network for V2X simulation -->
    <!-- Bottom row -->
    <node id="n0" x="0" y="0"/>
    <node id="n1" x="200" y="0"/>
    <node id="n2" x="400" y="0"/>
    <node id="n3" x="600" y="0"/>
    
    <!-- Middle row -->
    <node id="n4" x="0" y="200"/>
    <node id="n5" x="200" y="200" type="traffic_light"/>
    <node id="n6" x="400" y="200" type="traffic_light"/>
    <node id="n7" x="600" y="200"/>
    
    <!-- Top row -->
    <node id="n8" x="0" y="400"/>
    <node id="n9" x="200" y="400"/>
    <node id="n10" x="400" y="400"/>
    <node id="n11" x="600" y="400"/>
</nodes>
